opendss_networks/LV11_216bus/Switches.dss
new line.Switch_37_CLOSED lineCode=ughv_400al_triplex_ug_4w_bundled bus1=B2121 bus2=B1131 length=0.00100000000000 units=km switch=y phases=4
new line.Switch_59_CLOSED lineCode=ughv_400al_triplex_ug_4w_bundled bus1=B558 bus2=B3055 length=0.00100000000000 units=km switch=y phases=4
! new line.Switch_808_OPEN lineCode=ughv_400al_triplex_ug_4w_bundled bus1=B3096 bus2=B1945 length=0.00100000000000 units=km switch=y phases=4
new line.Switch_1442_CLOSED lineCode=ughv_400al_triplex_ug_4w_bundled bus1=B210 bus2=B1442 length=0.00100000000000 units=km switch=y phases=4
new line.Switch_1787_CLOSED lineCode=ughv_400al_triplex_ug_4w_bundled bus1=B3127 bus2=B1109 length=0.00100000000000 units=km switch=y phases=4
! new line.Switch_2042_OPEN lineCode=ughv_400al_triplex_ug_4w_bundled bus1=B1344 bus2=B241 length=0.00100000000000 units=km switch=y phases=4
new line.Switch_2198_CLOSED lineCode=ughv_400al_triplex_ug_4w_bundled bus1=B3197 bus2=B2214 length=0.00100000000000 units=km switch=y phases=4
new line.Switch_2799_CLOSED lineCode=ughv_400al_triplex_ug_4w_bundled bus1=B152 bus2=B1426 length=0.00100000000000 units=km switch=y phases=4
new line.Switch_3424_CLOSED lineCode=ughv_400al_triplex_ug_4w_bundled bus1=B1052 bus2=B2243 length=0.00100000000000 units=km switch=y phases=4
new line.Switch_4259_CLOSED lineCode=ughv_400al_triplex_ug_4w_bundled bus1=B782 bus2=B2300 length=0.00100000000000 units=km switch=y phases=4
! new line.Switch_4411_OPEN lineCode=ughv_400al_triplex_ug_4w_bundled bus1=B1055 bus2=B2010 length=0.00100000000000 units=km switch=y phases=4
